Version 4
SHEET 1 1476 1108
WIRE -96 -208 -192 -208
WIRE 448 -208 -32 -208
WIRE 464 -160 48 -160
WIRE 704 -160 544 -160
WIRE 704 -144 704 -160
WIRE -192 -96 -192 -208
WIRE 544 -96 -192 -96
WIRE 640 -96 624 -96
WIRE 512 -64 -80 -64
WIRE -192 -16 -192 -96
WIRE -176 -16 -192 -16
WIRE -80 -16 -80 -64
WIRE -80 -16 -96 -16
WIRE -64 -16 -80 -16
WIRE 48 -16 48 -160
WIRE 48 -16 0 -16
WIRE 128 -16 48 -16
WIRE 144 -16 128 -16
WIRE 240 -16 224 -16
WIRE 336 -16 240 -16
WIRE 448 -16 448 -208
WIRE 448 -16 432 -16
WIRE 48 0 48 -16
WIRE 128 80 128 -16
WIRE 240 80 240 -16
WIRE 352 80 352 32
WIRE -192 144 -192 -16
WIRE -32 144 -192 144
WIRE 48 144 -32 144
WIRE 64 144 48 144
WIRE 512 144 512 -64
WIRE 512 144 416 144
WIRE -192 160 -192 144
WIRE -32 176 -32 144
WIRE 48 208 48 144
WIRE 64 208 48 208
WIRE 704 208 704 -48
WIRE 704 208 416 208
WIRE 704 224 704 208
WIRE -192 256 -192 240
WIRE -32 256 -32 240
WIRE 64 272 48 272
WIRE 512 272 416 272
WIRE 656 272 592 272
WIRE 704 320 704 304
WIRE 48 336 48 272
WIRE 64 336 48 336
WIRE 432 336 416 336
WIRE 576 336 512 336
WIRE 656 336 640 336
WIRE -256 400 -288 400
WIRE 64 400 -176 400
WIRE 512 400 416 400
WIRE 656 400 576 400
WIRE 48 464 48 336
WIRE 64 464 48 464
WIRE 448 464 416 464
WIRE 240 528 240 512
FLAG -192 256 0
FLAG 656 272 0
FLAG 240 528 0
FLAG 656 336 0
FLAG 656 400 0
FLAG 448 464 0
FLAG -32 256 0
FLAG 48 64 0
FLAG -288 400 0
FLAG 704 320 0
SYMBOL ind -192 0 R270
WINDOW 0 32 56 VTop 0
WINDOW 3 5 56 VBottom 0
SYMATTR InstName L1
SYMATTR Value 4.3µ
SYMATTR SpiceLine Rser=.1
SYMBOL res 128 0 R270
WINDOW 0 32 56 VTop 0
WINDOW 3 0 56 VBottom 0
SYMATTR InstName R1
SYMATTR Value .3
SYMBOL cap -48 176 R0
WINDOW 3 28 55 Left 0
SYMATTR Value 2.2µ
SYMATTR InstName C1
SYMBOL voltage -192 144 R0
WINDOW 123 0 0 Left 0
WINDOW 39 0 0 Left 0
SYMATTR InstName V1
SYMATTR Value 12
SYMBOL LED -32 -224 R90
WINDOW 3 72 32 VTop 0
WINDOW 123 93 32 VTop 0
WINDOW 0 0 32 VBottom 0
SYMATTR Value LXHL-BW02
SYMATTR Value2 N=4
SYMATTR InstName D1
SYMATTR Description Diode
SYMATTR Type diode
SYMBOL res 496 256 M90
WINDOW 0 0 56 VBottom 0
WINDOW 3 32 56 VTop 0
SYMATTR InstName R2
SYMATTR Value 6.04K
SYMBOL pmos 432 32 M270
WINDOW 0 66 53 VLeft 0
WINDOW 3 -12 75 VLeft 0
SYMATTR InstName Q1
SYMATTR Value FDS4559_P
SYMBOL cap 576 352 R270
WINDOW 0 32 32 VTop 0
WINDOW 3 0 32 VBottom 0
SYMATTR InstName C2
SYMATTR Value .0047µ
SYMBOL cap 512 416 R270
WINDOW 0 32 32 VTop 0
WINDOW 3 0 32 VBottom 0
SYMATTR InstName C3
SYMATTR Value .01µ
SYMBOL PowerProducts\\LT3518 240 304 R0
SYMATTR InstName U1
SYMBOL cap 32 0 R0
WINDOW 3 27 52 Left 0
SYMATTR Value 2.2µ
SYMATTR InstName C4
SYMBOL voltage -160 400 R90
WINDOW 0 -32 56 VBottom 0
WINDOW 3 32 56 VTop 0
WINDOW 123 74 56 VTop 0
WINDOW 39 53 56 VTop 0
SYMATTR InstName V2
SYMATTR Value PULSE(3.3 0 1m 100n 100n 9800u 10m)
SYMBOL res 688 208 R0
SYMATTR InstName R3
SYMATTR Value 24.9K
SYMBOL schottky -64 0 R270
WINDOW 0 32 32 VTop 0
WINDOW 3 0 32 VBottom 0
SYMATTR InstName D2
SYMATTR Value 10MQ060N
SYMATTR Description Diode
SYMATTR Type diode
SYMBOL pnp 640 -48 M180
WINDOW 0 48 64 Left 0
WINDOW 3 51 33 Left 0
SYMATTR InstName Q2
SYMATTR Value 2N3906
SYMBOL res 448 -144 R270
WINDOW 0 32 56 VTop 0
WINDOW 3 0 56 VBottom 0
SYMATTR InstName R4
SYMATTR Value 475K
SYMBOL res 640 -112 R90
WINDOW 0 0 56 VBottom 0
WINDOW 3 32 56 VTop 0
SYMATTR InstName R5
SYMATTR Value 10K
SYMBOL res 416 352 R270
WINDOW 0 32 56 VTop 0
WINDOW 3 0 56 VBottom 0
SYMATTR InstName R6
SYMATTR Value 5.1K
TEXT 536 504 Left 0 !.tran 40m startup
TEXT -368 536 Left 0 ;Note:\n  If the simulation model is not found please update with the "Sync Release" command from the "Tools" menu.\n  It remains the customer's responsibility to verify proper and reliable operation in the actual application.\n  Component substitution and printed circuit board layout may significantly affect circuit performance or reliability.\n  Contact your local sales representative for assistance. This circuit is distributed to customers only for use with LTC parts.\n  Copyright © 2009 Linear Technology Inc. All rights reserved.
TEXT 296 -256 Bottom 0 ;DC1160A - LT3518 45V, 2.3A Internal Switch Buck-Boost Mode LED Driver\nInput: 12V       Output: 330mA through a string of 4 LEDs\nPWM DIM: 100Hz 1:50 ratio    20V LED+ to LED- OVP with OPEN LED string
